* NGSPICE file created from ram8_flat.ext - technology: gf180mcuC

.subckt ram8_flat A0 A1 A2 CLK Di0 Di1 Di16 Di17 Di18 Di19 Di2 Di20 Di21 Di22 Di23
+ Di24 Di25 Di26 Di27 Di28 Di29 Di3 Di30 Di31 Di4 Di5 Di6 Di7 Do0_buf Do16_buf Do17_buf
+ Do18_buf Do19_buf Do1_buf Do20_buf Do21_buf Do22_buf Do23_buf Do24_buf Do25_buf
+ Do26_buf Do27_buf Do28_buf Do29_buf Do2_buf Do30_buf Do31_buf Do3_buf Do4_buf Do5_buf
+ Do6_buf Do7_buf EN RE WE0 WE1 WE2 WE3 VSS VDD
X0 VDD a_151860_11764# a_151820_11114# VDD pfet_03v3 ad=467.5f pd=2.25u as=212.5f ps=1.95u w=1.7u l=300n
X1 a_108840_10088# a_108630_9598# VDD VDD pfet_03v3 ad=850f pd=4.4u as=850f ps=4.4u w=1.7u l=300n
X2 word4.byte2.tinv7.O word4.byte2.tinv5.EN a_121080_4840# VSS nfet_03v3 ad=255f pd=1.45u as=510f ps=2.9u w=850n l=300n
X3 a_153300_306# word1.byte1.tinv3.I VSS VSS nfet_03v3 ad=255f pd=1.45u as=510f ps=2.9u w=850n l=300n
X4 VSS word6.byte4.tinv6.I a_24420_7976# VSS nfet_03v3 ad=510f pd=2.9u as=255f ps=1.45u w=850n l=300n
X5 VDD a_60420_9714# a_61980_10498# VDD pfet_03v3 ad=467.5f pd=2.25u as=212.5f ps=1.95u w=1.7u l=300n
X6 a_65020_6412# word5.byte3.cgate0.inv1.O a_65250_7362# VDD pfet_03v3 ad=467.5f pd=2.25u as=425f ps=2.2u w=1.7u l=300n
X7 Do18_buf buf_out19.inv0.O VDD VDD pfet_03v3 ad=510f pd=2.3u as=510f ps=2.3u w=1.7u l=300n
X8 a_124680_6578# word5.byte2.tinv6.I VDD VDD pfet_03v3 ad=510f pd=2.3u as=1.02p ps=4.6u w=1.7u l=300n
X9 word2.byte1.dff_7.O word2.byte1.tinv7.I VSS VSS nfet_03v3 ad=425f pd=2.7u as=233.75f ps=1.4u w=850n l=300n
X10 word7.byte1.dff_0.O word7.byte1.tinv0.I VDD VDD pfet_03v3 ad=850f pd=4.4u as=467.5f ps=2.25u w=1.7u l=300n
X11 VSS word1.byte1.cgate0.nand0.B word1.byte2.cgate0.latch0.I0.O VSS nfet_03v3 ad=510f pd=2.9u as=255f ps=1.45u w=850n l=300n
X12 VSS word2.byte4.buf_RE0.O word2.byte4.tinv7.O VSS nfet_03v3 ad=255f pd=1.45u as=255f ps=1.45u w=850n l=300n
X13 VSS word4.gt_re1.O word4.gt_re3.I VSS nfet_03v3 ad=255f pd=1.45u as=255f ps=1.45u w=850n l=300n
X14 VDD word5.byte1.cgate0.inv1.I word5.byte1.dff_7.CLK VDD pfet_03v3 ad=1.02p pd=4.6u as=510f ps=2.3u w=1.7u l=300n
X15 word4.byte1.cgate0.nand0.A word4.byte1.cgate0.latch0.I0.O VDD VDD pfet_03v3 ad=510f pd=2.3u as=1.02p ps=4.6u w=1.7u l=300n
X16 word7.byte2.buf_RE1.I word7.byte1.buf_RE0.I VDD VDD pfet_03v3 ad=510f pd=2.3u as=510f ps=2.3u w=1.7u l=300n
X17 a_119430_7978# a_118810_8768# a_119320_7978# VDD pfet_03v3 ad=467.5f pd=2.25u as=212.5f ps=1.95u w=1.7u l=300n
X18 a_15570_4842# a_14950_5632# a_15460_4842# VDD pfet_03v3 ad=467.5f pd=2.25u as=212.5f ps=1.95u w=1.7u l=300n
X19 VDD word8.byte4.tinv2.I a_10020_11112# VDD pfet_03v3 ad=1.02p pd=4.6u as=510f ps=2.3u w=1.7u l=300n
X20 word5.byte3.cgate0.nand0.A word5.byte3.cgate0.latch0.I0.O VDD VDD pfet_03v3 ad=510f pd=2.3u as=1.02p ps=4.6u w=1.7u l=300n
X21 a_119640_6952# a_119430_6462# VSS VSS nfet_03v3 ad=425f pd=2.7u as=425f ps=2.7u w=850n l=300n
X22 a_65020_3276# word3.byte3.cgate0.inv1.O a_65250_4226# VDD pfet_03v3 ad=467.5f pd=2.25u as=425f ps=2.2u w=1.7u l=300n
X23 a_47580_5912# word4.byte3.cgate0.inv1.O a_47020_4792# VSS nfet_03v3 ad=106.25f pd=1.1u as=233.75f ps=1.4u w=850n l=300n
X24 VSS a_60420_9714# a_61980_9598# VSS nfet_03v3 ad=233.75f pd=1.4u as=106.25f ps=1.1u w=850n l=300n
X25 VSS word5.byte2.cgate0.inv1.I word5.byte2.dff_7.CLK VSS nfet_03v3 ad=255f pd=1.45u as=255f ps=1.45u w=850n l=300n
X26 a_134580_3442# word3.byte1.cgate0.nand0.A word3.byte1.cgate0.inv1.I VSS nfet_03v3 ad=510f pd=2.9u as=255f ps=1.45u w=850n l=300n
X27 a_124680_3442# word3.byte2.tinv6.I VDD VDD pfet_03v3 ad=510f pd=2.3u as=1.02p ps=4.6u w=1.7u l=300n
X28 VDD word5.gt_re3.I word5.byte1.buf_RE0.I VDD pfet_03v3 ad=510f pd=2.3u as=510f ps=2.3u w=1.7u l=300n
X29 VDD CLK word1.buf_ck1.I VDD pfet_03v3 ad=1.02p pd=4.6u as=510f ps=2.3u w=1.7u l=300n
X30 word4.byte4.dff_7.O word4.byte4.tinv7.I VDD VDD pfet_03v3 ad=850f pd=4.4u as=467.5f ps=2.25u w=1.7u l=300n
X31 word8.byte3.buf_RE0.O word8.byte1.buf_RE0.I VSS VSS nfet_03v3 ad=255f pd=1.45u as=255f ps=1.45u w=850n l=300n
X32 word5.byte4.cgate0.inv1.O word5.byte4.cgate0.inv1.I VDD VDD pfet_03v3 ad=510f pd=2.3u as=1.02p ps=4.6u w=1.7u l=300n
X33 a_114880_7928# a_115210_8768# a_115110_9048# VSS nfet_03v3 ad=233.75f pd=1.4u as=212.5f ps=1.35u w=850n l=300n
X34 VSS word1.byte1.cgate0.nand0.B word1.byte4.cgate0.latch0.I0.O VSS nfet_03v3 ad=510f pd=2.9u as=255f ps=1.45u w=850n l=300n
X35 word2.byte1.cgate0.nand0.A word2.byte1.cgate0.latch0.I0.O VDD VDD pfet_03v3 ad=510f pd=2.3u as=1.02p ps=4.6u w=1.7u l=300n
X36 VDD word3.byte1.cgate0.inv1.I word3.byte1.dff_7.CLK VDD pfet_03v3 ad=1.02p pd=4.6u as=510f ps=2.3u w=1.7u l=300n
X37 a_15570_1706# a_14950_2496# a_15460_1706# VDD pfet_03v3 ad=467.5f pd=2.25u as=212.5f ps=1.95u w=1.7u l=300n
X38 a_119640_3816# a_119430_3326# VSS VSS nfet_03v3 ad=425f pd=2.7u as=425f ps=2.7u w=850n l=300n
X39 VSS word3.gt_re3.I word3.byte1.buf_RE0.I VSS nfet_03v3 ad=255f pd=1.45u as=255f ps=1.45u w=850n l=300n
X40 word3.byte3.cgate0.nand0.A word3.byte3.cgate0.latch0.I0.O VDD VDD pfet_03v3 ad=510f pd=2.3u as=1.02p ps=4.6u w=1.7u l=300n
X41 VDD a_153300_4840# a_154860_4842# VDD pfet_03v3 ad=467.5f pd=2.25u as=212.5f ps=1.95u w=1.7u l=300n
X42 word4.byte2.cgate0.inv1.I word4.byte2.cgate0.nand0.A VDD VDD pfet_03v3 ad=510f pd=2.3u as=1.02p ps=4.6u w=1.7u l=300n
X43 a_61750_6412# word5.byte3.cgate0.inv1.O VDD VDD pfet_03v3 ad=850f pd=4.4u as=467.5f ps=2.25u w=1.7u l=300n
X44 a_1380_680# a_1170_190# VDD VDD pfet_03v3 ad=850f pd=4.4u as=850f ps=4.4u w=1.7u l=300n
X45 a_14850_2776# buf_in28.inv1.O VSS VSS nfet_03v3 ad=212.5f pd=1.35u as=233.75f ps=1.4u w=850n l=300n
X46 word8.byte3.cgate0.latch0.I0.O word8.byte1.cgate0.nand0.B VDD VDD pfet_03v3 ad=510f pd=2.3u as=1.02p ps=4.6u w=1.7u l=300n
X47 word2.byte4.dff_7.O word2.byte4.tinv7.I VDD VDD pfet_03v3 ad=850f pd=4.4u as=467.5f ps=2.25u w=1.7u l=300n
X48 word3.byte2.dff_7.CLK word3.byte2.cgate0.inv1.I VSS VSS nfet_03v3 ad=255f pd=1.45u as=255f ps=1.45u w=850n l=300n
X49 VDD word3.gt_re3.I word3.byte1.buf_RE0.I VDD pfet_03v3 ad=510f pd=2.3u as=510f ps=2.3u w=1.7u l=300n
X50 a_140850_6462# word5.byte1.dff_7.CLK a_140740_6462# VSS nfet_03v3 ad=233.75f pd=1.4u as=106.25f ps=1.1u w=850n l=300n
X51 buf_in16.inv0.O buf_in16.inv0.I VSS VSS nfet_03v3 ad=255f pd=1.45u as=510f ps=2.9u w=850n l=300n
X52 word3.byte4.cgate0.inv1.O word3.byte4.cgate0.inv1.I VDD VDD pfet_03v3 ad=510f pd=2.3u as=1.02p ps=4.6u w=1.7u l=300n
X53 VDD word4.byte3.tinv3.I a_53220_4840# VDD pfet_03v3 ad=1.02p pd=4.6u as=510f ps=2.3u w=1.7u l=300n
X54 a_147660_9598# word7.byte1.dff_7.CLK a_147100_9548# VSS nfet_03v3 ad=106.25f pd=1.1u as=233.75f ps=1.4u w=850n l=300n
X55 VDD a_100380_6462# a_101040_7362# VDD pfet_03v3 ad=467.5f pd=2.25u as=212.5f ps=1.95u w=1.7u l=300n
X56 VDD a_153300_1704# a_154860_1706# VDD pfet_03v3 ad=467.5f pd=2.25u as=212.5f ps=1.95u w=1.7u l=300n
X57 word2.byte2.cgate0.inv1.I word2.byte2.cgate0.nand0.A VDD VDD pfet_03v3 ad=510f pd=2.3u as=1.02p ps=4.6u w=1.7u l=300n
X58 a_47970_9598# word7.byte3.cgate0.inv1.O a_47860_9598# VSS nfet_03v3 ad=233.75f pd=1.4u as=106.25f ps=1.1u w=850n l=300n
X59 a_61750_3276# word3.byte3.cgate0.inv1.O VDD VDD pfet_03v3 ad=850f pd=4.4u as=467.5f ps=2.25u w=1.7u l=300n
X60 VDD buf_in9.inv0.O buf_in9.inv1.O VDD pfet_03v3 ad=510f pd=2.3u as=510f ps=2.3u w=1.7u l=300n
X61 VSS word8.byte2.tinv4.I a_117480_11112# VSS nfet_03v3 ad=510f pd=2.9u as=255f ps=1.45u w=850n l=300n
X62 a_140130_9598# buf_in8.inv1.O VSS VSS nfet_03v3 ad=212.5f pd=1.35u as=233.75f ps=1.4u w=850n l=300n
X63 VDD word6.byte4.cgate0.latch0.I0.O word6.byte4.cgate0.nand0.A VDD pfet_03v3 ad=1.02p pd=4.6u as=510f ps=2.3u w=1.7u l=300n
X64 a_24420_6578# word5.byte4.tinv6.I VSS VSS nfet_03v3 ad=255f pd=1.45u as=510f ps=2.9u w=850n l=300n
X65 VDD a_42420_306# a_43980_1090# VDD pfet_03v3 ad=467.5f pd=2.25u as=212.5f ps=1.95u w=1.7u l=300n
X66 a_140850_3326# word3.byte1.dff_7.CLK a_140740_3326# VSS nfet_03v3 ad=233.75f pd=1.4u as=106.25f ps=1.1u w=850n l=300n
X67 word7.byte3.dff_5.O word7.byte3.tinv5.I VSS VSS nfet_03v3 ad=425f pd=2.7u as=233.75f ps=1.4u w=850n l=300n
X68 word7.byte4.tinv7.O buf_out30.inv0.I a_10020_9714# VDD pfet_03v3 ad=510f pd=2.3u as=1.02p ps=4.6u w=1.7u l=300n
X69 a_111610_8768# word6.byte2.dff_7.CLK VSS VSS nfet_03v3 ad=425f pd=2.7u as=233.75f ps=1.4u w=850n l=300n
X70 VSS a_166260_8628# a_166220_9048# VSS nfet_03v3 ad=233.75f pd=1.4u as=106.25f ps=1.1u w=850n l=300n
X71 VDD word2.byte3.tinv3.I a_53220_1704# VDD pfet_03v3 ad=1.02p pd=4.6u as=510f ps=2.3u w=1.7u l=300n
X72 VSS buf_in28.inv0.O buf_in28.inv1.O VSS nfet_03v3 ad=510f pd=2.9u as=255f ps=1.45u w=850n l=300n
X73 VDD a_100380_3326# a_101040_4226# VDD pfet_03v3 ad=467.5f pd=2.25u as=212.5f ps=1.95u w=1.7u l=300n
X74 a_155140_4842# a_153300_4840# VDD VDD pfet_03v3 ad=212.5f pd=1.95u as=467.5f ps=2.25u w=1.7u l=300n
X75 VSS a_110280_1704# a_111840_2776# VSS nfet_03v3 ad=233.75f pd=1.4u as=106.25f ps=1.1u w=850n l=300n
X76 VDD a_55380_5492# a_55340_4842# VDD pfet_03v3 ad=467.5f pd=2.25u as=212.5f ps=1.95u w=1.7u l=300n
X77 word6.byte1.buf_RE1.I word6.byte1.buf_RE0.I VSS VSS nfet_03v3 ad=255f pd=1.45u as=510f ps=2.9u w=850n l=300n
X78 VSS word2.byte1.tinv0.I a_142500_1704# VSS nfet_03v3 ad=510f pd=2.9u as=255f ps=1.45u w=850n l=300n
X79 a_142500_11112# word8.byte1.tinv0.EN word8.byte1.tinv7.O VSS nfet_03v3 ad=357.5f pd=1.93u as=255f ps=1.45u w=850n l=300n
X80 a_19380_680# a_19170_190# VSS VSS nfet_03v3 ad=425f pd=2.7u as=425f ps=2.7u w=850n l=300n
X81 VDD word5.byte4.dff_0.O_bar a_2820_6578# VDD pfet_03v3 ad=1.02p pd=4.6u as=510f ps=2.3u w=1.7u l=300n
X82 VSS a_1380_680# word1.byte4.dff_0.O_bar VSS nfet_03v3 ad=233.75f pd=1.4u as=425f ps=2.7u w=850n l=300n
X83 a_155140_1706# a_153300_1704# VDD VDD pfet_03v3 ad=212.5f pd=1.95u as=467.5f ps=2.25u w=1.7u l=300n
X84 a_48140_9598# a_47350_9548# a_47970_9598# VSS nfet_03v3 ad=106.25f pd=1.1u as=233.75f ps=1.4u w=850n l=300n
X85 word6.byte1.buf_RE0.I word6.gt_re3.I VSS VSS nfet_03v3 ad=255f pd=1.45u as=255f ps=1.45u w=850n l=300n
X86 a_122410_140# word1.byte2.dff_7.CLK VSS VSS nfet_03v3 ad=425f pd=2.7u as=233.75f ps=1.4u w=850n l=300n
X87 VSS word2.byte2.inv_and.O a_92280_2660# VSS nfet_03v3 ad=510f pd=2.9u as=255f ps=1.45u w=850n l=300n
X88 VDD a_55380_2356# a_55340_1706# VDD pfet_03v3 ad=467.5f pd=2.25u as=212.5f ps=1.95u w=1.7u l=300n
X89 a_4770_7978# word6.byte4.cgate0.inv1.O a_4660_9048# VSS nfet_03v3 ad=233.75f pd=1.4u as=106.25f ps=1.1u w=850n l=300n
X90 a_123030_4842# word4.byte2.dff_7.CLK a_122920_5912# VSS nfet_03v3 ad=233.75f pd=1.4u as=106.25f ps=1.1u w=850n l=300n
X91 VSS word8.byte4.dff_0.O_bar a_2820_11112# VSS nfet_03v3 ad=510f pd=2.9u as=255f ps=1.45u w=850n l=300n
X92 VDD EN dec8.and4_1.nand0.OUT VDD pfet_03v3 ad=510f pd=2.3u as=1.02p ps=4.6u w=1.7u l=300n
X93 word6.byte2.dff_2.O word6.byte2.tinv2.I VDD VDD pfet_03v3 ad=850f pd=4.4u as=467.5f ps=2.25u w=1.7u l=300n
X94 VDD word3.byte4.dff_0.O_bar a_2820_3442# VDD pfet_03v3 ad=1.02p pd=4.6u as=510f ps=2.3u w=1.7u l=300n
X95 a_131700_9714# word7.byte1.cgate0.latch0.I0.O word7.byte1.cgate0.latch0.I0.O VSS nfet_03v3 ad=510f pd=2.9u as=255f ps=1.45u w=850n l=300n
X96 a_156900_11112# buf_out4.inv0.I word8.byte1.tinv7.O VDD pfet_03v3 ad=427.5f pd=2.21u as=510f ps=2.3u w=1.7u l=300n
X97 VSS a_162660_680# a_162620_190# VSS nfet_03v3 ad=233.75f pd=1.4u as=106.25f ps=1.1u w=850n l=300n
X98 VSS word3.byte1.buf_RE0.I word3.byte1.buf_RE1.I VSS nfet_03v3 ad=255f pd=1.45u as=255f ps=1.45u w=850n l=300n
X99 VSS word1.byte4.tinv5.I a_20820_306# VSS nfet_03v3 ad=510f pd=2.9u as=255f ps=1.45u w=850n l=300n
X100 word5.byte1.nand.B word5.buf_sel0.O VDD VDD pfet_03v3 ad=510f pd=2.3u as=1.02p ps=4.6u w=1.7u l=300n
X101 VSS word8.gt_re0.OUT word8.gt_re1.O VSS nfet_03v3 ad=510f pd=2.9u as=255f ps=1.45u w=850n l=300n
X102 a_11860_10498# a_10020_9714# VDD VDD pfet_03v3 ad=212.5f pd=1.95u as=467.5f ps=2.25u w=1.7u l=300n
X103 word7.byte2.cgate0.nand0.A word7.byte2.cgate0.latch0.I0.O VSS VSS nfet_03v3 ad=255f pd=1.45u as=510f ps=2.9u w=850n l=300n
X104 VSS word3.gt_re3.I word3.byte1.buf_RE0.I VSS nfet_03v3 ad=255f pd=1.45u as=255f ps=1.45u w=850n l=300n
X105 a_54780_2776# word2.byte3.cgate0.inv1.O a_54220_1656# VSS nfet_03v3 ad=106.25f pd=1.1u as=233.75f ps=1.4u w=850n l=300n
X106 word5.byte3.tinv7.O buf_out23.inv0.I a_46020_6578# VDD pfet_03v3 ad=510f pd=2.3u as=1.02p ps=4.6u w=1.7u l=300n
X107 VSS a_108840_680# a_108800_190# VSS nfet_03v3 ad=233.75f pd=1.4u as=106.25f ps=1.1u w=850n l=300n
X108 word3.byte1.nand.B word3.buf_sel0.O VDD VDD pfet_03v3 ad=510f pd=2.3u as=1.02p ps=4.6u w=1.7u l=300n
X109 VSS buf_out13.inv0.I buf_out13.inv0.O VSS nfet_03v3 ad=510f pd=2.9u as=510f ps=2.9u w=850n l=300n
X110 a_25980_9048# word6.byte4.cgate0.inv1.O a_25420_7928# VSS nfet_03v3 ad=106.25f pd=1.1u as=233.75f ps=1.4u w=850n l=300n
X111 a_54450_11114# buf_in20.inv1.O VDD VDD pfet_03v3 ad=425f pd=2.2u as=467.5f ps=2.25u w=1.7u l=300n
X112 a_108240_12184# word8.byte2.dff_7.CLK a_107680_11064# VSS nfet_03v3 ad=106.25f pd=1.1u as=233.75f ps=1.4u w=850n l=300n
X113 word3.byte3.tinv7.O buf_out23.inv0.I a_46020_3442# VDD pfet_03v3 ad=510f pd=2.3u as=1.02p ps=4.6u w=1.7u l=300n
X114 a_65860_5912# a_64020_4840# VSS VSS nfet_03v3 ad=106.25f pd=1.1u as=233.75f ps=1.4u w=850n l=300n
X115 a_13620_4840# word4.byte4.tinv3.I VDD VDD pfet_03v3 ad=510f pd=2.3u as=1.02p ps=4.6u w=1.7u l=300n
X116 a_119600_11114# word8.byte2.dff_7.CLK a_119430_11114# VDD pfet_03v3 ad=212.5f pd=1.95u as=467.5f ps=2.25u w=1.7u l=300n
X117 a_159020_10498# word7.byte1.dff_7.CLK a_158850_9598# VDD pfet_03v3 ad=212.5f pd=1.95u as=467.5f ps=2.25u w=1.7u l=300n
X118 VDD word8.buf_ck1.I word8.byte1.cgate0.nand0.B VDD pfet_03v3 ad=510f pd=2.3u as=510f ps=2.3u w=1.7u l=300n
X119 a_50850_6462# buf_in21.inv1.O VSS VSS nfet_03v3 ad=212.5f pd=1.35u as=233.75f ps=1.4u w=850n l=300n
X120 VSS buf_in6.inv0.O buf_in6.inv1.O VSS nfet_03v3 ad=255f pd=1.45u as=255f ps=1.45u w=850n l=300n
X121 a_40770_190# word1.byte3.cgate0.inv1.O a_40660_190# VSS nfet_03v3 ad=233.75f pd=1.4u as=106.25f ps=1.1u w=850n l=300n
X122 a_7980_1090# a_7750_140# a_7420_140# VDD pfet_03v3 ad=212.5f pd=1.95u as=467.5f ps=2.25u w=1.7u l=300n
X123 a_161730_7362# buf_in2.inv1.O VDD VDD pfet_03v3 ad=425f pd=2.2u as=467.5f ps=2.25u w=1.7u l=300n
X124 a_13620_1704# word2.byte4.tinv3.I VDD VDD pfet_03v3 ad=510f pd=2.3u as=1.02p ps=4.6u w=1.7u l=300n
X125 VDD buf_out24.inv0.I buf_out24.inv0.O VDD pfet_03v3 ad=1.02p pd=4.6u as=1.02p ps=4.6u w=1.7u l=300n
X126 buf_we4.inv1.O buf_we4.inv0.O VDD VDD pfet_03v3 ad=510f pd=2.3u as=510f ps=2.3u w=1.7u l=300n
X127 a_22660_7978# a_20820_7976# VDD VDD pfet_03v3 ad=212.5f pd=1.95u as=467.5f ps=2.25u w=1.7u l=300n
X128 a_50850_3326# buf_in21.inv1.O VSS VSS nfet_03v3 ad=212.5f pd=1.35u as=233.75f ps=1.4u w=850n l=300n
X129 VSS word6.buf_sel0.O word6.byte1.nand.B VSS nfet_03v3 ad=510f pd=2.9u as=255f ps=1.45u w=850n l=300n
X130 a_66180_5492# a_65970_4842# VSS VSS nfet_03v3 ad=425f pd=2.7u as=425f ps=2.7u w=850n l=300n
X131 a_108840_2356# a_108630_1706# VSS VSS nfet_03v3 ad=425f pd=2.7u as=425f ps=2.7u w=850n l=300n
X132 a_161730_4226# buf_in2.inv1.O VDD VDD pfet_03v3 ad=425f pd=2.2u as=467.5f ps=2.25u w=1.7u l=300n
X133 VSS buf_out31.inv0.I buf_out31.inv0.O VSS nfet_03v3 ad=510f pd=2.9u as=510f ps=2.9u w=850n l=300n
X134 a_165660_10498# a_165430_9548# a_165100_9548# VDD pfet_03v3 ad=212.5f pd=1.95u as=467.5f ps=2.25u w=1.7u l=300n
X135 a_162060_1090# a_161830_140# a_161500_140# VDD pfet_03v3 ad=212.5f pd=1.95u as=467.5f ps=2.25u w=1.7u l=300n
X136 a_62370_190# a_61750_140# a_62260_1090# VDD pfet_03v3 ad=467.5f pd=2.25u as=212.5f ps=1.95u w=1.7u l=300n
X137 a_118810_11904# word8.byte2.dff_7.CLK VSS VSS nfet_03v3 ad=425f pd=2.7u as=233.75f ps=1.4u w=850n l=300n
X138 a_155250_4842# word4.byte1.dff_7.CLK a_155140_5912# VSS nfet_03v3 ad=233.75f pd=1.4u as=106.25f ps=1.1u w=850n l=300n
X139 a_101600_5912# a_100810_5632# a_101430_4842# VSS nfet_03v3 ad=106.25f pd=1.1u as=233.75f ps=1.4u w=850n l=300n
X140 buf_in21.inv1.O buf_in21.inv0.O VDD VDD pfet_03v3 ad=510f pd=2.3u as=1.02p ps=4.6u w=1.7u l=300n
X141 a_4940_11114# word8.byte4.cgate0.inv1.O a_4770_11114# VDD pfet_03v3 ad=212.5f pd=1.95u as=467.5f ps=2.25u w=1.7u l=300n
X142 a_53220_11112# word8.byte3.tinv3.I VSS VSS nfet_03v3 ad=255f pd=1.45u as=510f ps=2.9u w=850n l=300n
X143 a_100710_4842# buf_in16.inv1.O VDD VDD pfet_03v3 ad=425f pd=2.2u as=467.5f ps=2.25u w=1.7u l=300n
X144 word1.byte1.dff_3.O word1.byte1.tinv3.I VSS VSS nfet_03v3 ad=425f pd=2.7u as=233.75f ps=1.4u w=850n l=300n
X145 word2.byte3.tinv7.O word2.byte3.tinv6.EN a_64020_1704# VSS nfet_03v3 ad=255f pd=1.45u as=510f ps=2.9u w=850n l=300n
X146 VSS a_19380_5492# word4.byte4.tinv5.I VSS nfet_03v3 ad=233.75f pd=1.4u as=425f ps=2.7u w=850n l=300n
X147 a_22980_8628# a_22770_7978# VDD VDD pfet_03v3 ad=850f pd=4.4u as=850f ps=4.4u w=1.7u l=300n
X148 buf_sel3.inv1.O buf_sel3.inv0.O VSS VSS nfet_03v3 ad=255f pd=1.45u as=255f ps=1.45u w=850n l=300n
X149 a_107680_11064# word8.byte2.dff_7.CLK a_107910_11114# VDD pfet_03v3 ad=467.5f pd=2.25u as=425f ps=2.2u w=1.7u l=300n
X150 a_147100_9548# word7.byte1.dff_7.CLK a_147330_10498# VDD pfet_03v3 ad=467.5f pd=2.25u as=425f ps=2.2u w=1.7u l=300n
X151 a_166260_10088# a_166050_9598# VSS VSS nfet_03v3 ad=425f pd=2.7u as=425f ps=2.7u w=850n l=300n
X152 word1.byte1.tinv7.O buf_out2.inv0.I a_164100_306# VDD pfet_03v3 ad=510f pd=2.3u as=1.02p ps=4.6u w=1.7u l=300n
X153 VDD a_53220_11112# a_54780_11114# VDD pfet_03v3 ad=467.5f pd=2.25u as=212.5f ps=1.95u w=1.7u l=300n
X154 VDD word1.byte2.tinv2.I a_110280_306# VDD pfet_03v3 ad=1.02p pd=4.6u as=510f ps=2.3u w=1.7u l=300n
X155 word7.byte1.buf_RE0.I word7.gt_re3.I VSS VSS nfet_03v3 ad=255f pd=1.45u as=510f ps=2.9u w=850n l=300n
X156 VSS a_66180_2356# word2.byte3.tinv7.I VSS nfet_03v3 ad=233.75f pd=1.4u as=425f ps=2.7u w=850n l=300n
X157 a_65350_9548# word7.byte3.cgate0.inv1.O VSS VSS nfet_03v3 ad=425f pd=2.7u as=233.75f ps=1.4u w=850n l=300n
X158 a_100710_1706# buf_in16.inv1.O VDD VDD pfet_03v3 ad=425f pd=2.2u as=467.5f ps=2.25u w=1.7u l=300n
X159 a_167700_4840# buf_out1.inv0.I word4.byte1.tinv7.O VDD pfet_03v3 ad=1.02p pd=4.6u as=510f ps=2.3u w=1.7u l=300n
X160 a_119600_9048# a_118810_8768# a_119430_7978# VSS nfet_03v3 ad=106.25f pd=1.1u as=233.75f ps=1.4u w=850n l=300n
X161 VSS word8.gt_re3.I word8.byte1.buf_RE0.I VSS nfet_03v3 ad=255f pd=1.45u as=255f ps=1.45u w=850n l=300n
X162 VSS word7.byte3.dff_0.O_bar a_42420_9714# VSS nfet_03v3 ad=510f pd=2.9u as=255f ps=1.45u w=850n l=300n
X163 a_35760_3442# word3.byte1.cgate0.nand0.B word3.byte4.cgate0.latch0.I0.O VSS nfet_03v3 ad=255f pd=1.45u as=510f ps=2.9u w=850n l=300n
X164 VSS word5.byte1.buf_RE1.I word5.byte1.tinv7.O VSS nfet_03v3 ad=510f pd=2.9u as=255f ps=1.45u w=850n l=300n
X165 VDD word6.gt_re3.I word6.byte1.buf_RE0.I VDD pfet_03v3 ad=1.02p pd=4.6u as=510f ps=2.3u w=1.7u l=300n
X166 a_67620_11112# word8.byte3.tinv7.I VDD VDD pfet_03v3 ad=510f pd=2.3u as=1.02p ps=4.6u w=1.7u l=300n
X167 a_62540_7978# word6.byte3.cgate0.inv1.O a_62370_7978# VDD pfet_03v3 ad=212.5f pd=1.95u as=467.5f ps=2.25u w=1.7u l=300n
X168 a_167700_1704# buf_out1.inv0.I word2.byte1.tinv7.O VDD pfet_03v3 ad=1.02p pd=4.6u as=510f ps=2.3u w=1.7u l=300n
X169 VDD word1.byte3.cgate0.inv1.I word1.byte3.cgate0.inv1.O VDD pfet_03v3 ad=510f pd=2.3u as=510f ps=2.3u w=1.7u l=300n
X170 word6.byte2.tinv7.O word6.byte2.buf_RE1.I VDD VDD pfet_03v3 ad=510f pd=2.3u as=510f ps=2.3u w=1.7u l=300n
X171 word5.byte1.nand.B word5.buf_sel0.O VSS VSS nfet_03v3 ad=255f pd=1.45u as=255f ps=1.45u w=850n l=300n
X172 a_75720_4840# word4.byte3.cgate0.latch0.I0.ENB word4.byte3.cgate0.latch0.I0.O VDD pfet_03v3 ad=1.02p pd=4.6u as=510f ps=2.3u w=1.7u l=300n
X173 a_62260_7362# a_60420_6578# VDD VDD pfet_03v3 ad=212.5f pd=1.95u as=467.5f ps=2.25u w=1.7u l=300n
X174 VSS a_100380_11114# a_101040_12184# VSS nfet_03v3 ad=233.75f pd=1.4u as=106.25f ps=1.1u w=850n l=300n
X175 word1.buf_sel0.O buf_sel1.inv1.O VSS VSS nfet_03v3 ad=510f pd=2.9u as=510f ps=2.9u w=850n l=300n
X176 a_148260_680# a_148050_190# VDD VDD pfet_03v3 ad=850f pd=4.4u as=850f ps=4.4u w=1.7u l=300n
X177 a_139900_6412# a_140230_6412# a_140130_6462# VSS nfet_03v3 ad=233.75f pd=1.4u as=212.5f ps=1.35u w=850n l=300n
X178 VDD a_147100_9548# a_146100_9714# VDD pfet_03v3 ad=467.5f pd=2.25u as=285f ps=1.47u w=1.705u l=300n
X179 buf_in12.inv0.O buf_in12.inv0.I VDD VDD pfet_03v3 ad=510f pd=2.3u as=1.02p ps=4.6u w=1.7u l=300n
X180 a_56820_7976# buf_out20.inv0.I word6.byte3.tinv7.O VDD pfet_03v3 ad=427.5f pd=2.21u as=510f ps=2.3u w=1.7u l=300n
X181 VDD a_112440_11764# a_112400_11114# VDD pfet_03v3 ad=467.5f pd=2.25u as=212.5f ps=1.95u w=1.7u l=300n
X182 VDD a_151860_10088# a_151820_10498# VDD pfet_03v3 ad=467.5f pd=2.25u as=212.5f ps=1.95u w=1.7u l=300n
X183 a_47350_140# word1.byte3.cgate0.inv1.O VDD VDD pfet_03v3 ad=850f pd=4.4u as=467.5f ps=2.25u w=1.7u l=300n
X184 a_115210_8768# word6.byte2.dff_7.CLK VDD VDD pfet_03v3 ad=850f pd=4.4u as=467.5f ps=2.25u w=1.7u l=300n
X185 a_75720_1704# word2.byte3.cgate0.latch0.I0.ENB word2.byte3.cgate0.latch0.I0.O VDD pfet_03v3 ad=1.02p pd=4.6u as=510f ps=2.3u w=1.7u l=300n
X186 a_450_4842# buf_in32.inv1.O VDD VDD pfet_03v3 ad=425f pd=2.2u as=467.5f ps=2.25u w=1.7u l=300n
X187 buf_in3.inv0.O Di2 VSS VSS nfet_03v3 ad=255f pd=1.45u as=510f ps=2.9u w=850n l=300n
X188 a_65970_190# word1.byte3.cgate0.inv1.O a_65860_190# VSS nfet_03v3 ad=233.75f pd=1.4u as=106.25f ps=1.1u w=850n l=300n
X189 a_62260_4226# a_60420_3442# VDD VDD pfet_03v3 ad=212.5f pd=1.95u as=467.5f ps=2.25u w=1.7u l=300n
X190 VSS buf_out26.inv0.O Do25_buf VSS nfet_03v3 ad=255f pd=1.45u as=255f ps=1.45u w=850n l=300n
X191 a_139900_3276# a_140230_3276# a_140130_3326# VSS nfet_03v3 ad=233.75f pd=1.4u as=212.5f ps=1.35u w=850n l=300n
X192 VDD a_162660_6952# word5.byte1.tinv6.I VDD pfet_03v3 ad=467.5f pd=2.25u as=850f ps=4.4u w=1.7u l=300n
X193 a_62580_6952# a_62370_6462# VDD VDD pfet_03v3 ad=850f pd=4.4u as=850f ps=4.4u w=1.7u l=300n
X194 VDD buf_out8.inv0.O Do7_buf VDD pfet_03v3 ad=510f pd=2.3u as=510f ps=2.3u w=1.7u l=300n
X195 VDD buf_out29.inv0.I buf_out29.inv0.O VDD pfet_03v3 ad=1.02p pd=4.6u as=1.02p ps=4.6u w=1.7u l=300n
X196 a_450_1706# buf_in32.inv1.O VDD VDD pfet_03v3 ad=425f pd=2.2u as=467.5f ps=2.25u w=1.7u l=300n
X197 a_146100_4840# word4.byte1.tinv1.EN word4.byte1.tinv7.O VSS nfet_03v3 ad=357.5f pd=1.93u as=255f ps=1.45u w=850n l=300n
X198 a_8370_7978# a_7750_8768# a_8260_7978# VDD pfet_03v3 ad=467.5f pd=2.25u as=212.5f ps=1.95u w=1.7u l=300n
X199 a_7420_140# a_7750_140# a_7650_190# VSS nfet_03v3 ad=233.75f pd=1.4u as=212.5f ps=1.35u w=850n l=300n
X200 VDD a_162660_3816# word3.byte1.tinv6.I VDD pfet_03v3 ad=467.5f pd=2.25u as=850f ps=4.4u w=1.7u l=300n
X201 word4.byte1.dff_1.O word4.byte1.tinv1.I VSS VSS nfet_03v3 ad=425f pd=2.7u as=233.75f ps=1.4u w=850n l=300n
X202 Do17_buf buf_out18.inv0.O VSS VSS nfet_03v3 ad=255f pd=1.45u as=255f ps=1.45u w=850n l=300n
X203 VSS word6.byte3.tinv2.I a_49620_7976# VSS nfet_03v3 ad=510f pd=2.9u as=255f ps=1.45u w=850n l=300n
X204 a_62580_3816# a_62370_3326# VDD VDD pfet_03v3 ad=850f pd=4.4u as=850f ps=4.4u w=1.7u l=300n
X205 word2.byte1.cgate0.inv1.I word2.byte1.cgate0.nand0.A a_134580_2660# VSS nfet_03v3 ad=255f pd=1.45u as=510f ps=2.9u w=850n l=300n
X206 word4.byte2.dff_7.CLK word4.byte2.cgate0.inv1.I VSS VSS nfet_03v3 ad=255f pd=1.45u as=255f ps=1.45u w=850n l=300n
X207 buf_in32.inv0.O Di31 VDD VDD pfet_03v3 ad=510f pd=2.3u as=1.02p ps=4.6u w=1.7u l=300n
X208 a_122080_4792# a_122410_5632# a_122310_5912# VSS nfet_03v3 ad=233.75f pd=1.4u as=212.5f ps=1.35u w=850n l=300n
X209 VDD word5.byte1.tinv2.I a_149700_6578# VDD pfet_03v3 ad=1.02p pd=4.6u as=510f ps=2.3u w=1.7u l=300n
X210 VSS word8.byte1.buf_RE0.I word8.byte4.buf_RE0.O VSS nfet_03v3 ad=255f pd=1.45u as=255f ps=1.45u w=850n l=300n
X211 VDD a_101640_5492# word4.byte2.tinv0.I VDD pfet_03v3 ad=467.5f pd=2.25u as=850f ps=4.4u w=1.7u l=300n
X212 word8.byte2.dff_7.O word8.byte2.tinv7.I VSS VSS nfet_03v3 ad=425f pd=2.7u as=233.75f ps=1.4u w=850n l=300n
X213 VSS word3.byte1.tinv5.I a_160500_3442# VSS nfet_03v3 ad=510f pd=2.9u as=255f ps=1.45u w=850n l=300n
X214 word5.byte2.tinv7.O word5.byte2.buf_RE1.I VDD VDD pfet_03v3 ad=510f pd=2.3u as=510f ps=2.3u w=1.7u l=300n
X215 a_106680_6578# buf_out15.inv0.I word5.byte2.tinv7.O VDD pfet_03v3 ad=427.5f pd=2.21u as=510f ps=2.3u w=1.7u l=300n
X216 a_162450_1706# word2.byte1.dff_7.CLK a_162340_2776# VSS nfet_03v3 ad=233.75f pd=1.4u as=106.25f ps=1.1u w=850n l=300n
X217 VSS a_26580_6952# a_26540_6462# VSS nfet_03v3 ad=233.75f pd=1.4u as=106.25f ps=1.1u w=850n l=300n
X218 VDD word3.byte1.tinv2.I a_149700_3442# VDD pfet_03v3 ad=1.02p pd=4.6u as=510f ps=2.3u w=1.7u l=300n
X219 VDD a_101640_2356# word2.byte2.tinv0.I VDD pfet_03v3 ad=467.5f pd=2.25u as=850f ps=4.4u w=1.7u l=300n
X220 a_65250_5912# buf_in17.inv1.O VSS VSS nfet_03v3 ad=212.5f pd=1.35u as=233.75f ps=1.4u w=850n l=300n
X221 VDD buf_sel1.inv0.I buf_sel1.inv0.O VDD pfet_03v3 ad=1.02p pd=4.6u as=510f ps=2.3u w=1.7u l=300n
X222 a_11020_140# word1.byte4.cgate0.inv1.O a_11250_1090# VDD pfet_03v3 ad=467.5f pd=2.25u as=425f ps=2.2u w=1.7u l=300n
X223 VSS word8.byte1.buf_RE0.I word8.byte2.buf_RE1.I VSS nfet_03v3 ad=255f pd=1.45u as=255f ps=1.45u w=850n l=300n
X224 word3.byte2.tinv7.O word3.byte2.tinv4.EN a_117480_3442# VSS nfet_03v3 ad=255f pd=1.45u as=510f ps=2.9u w=850n l=300n
X225 a_106680_3442# buf_out15.inv0.I word3.byte2.tinv7.O VDD pfet_03v3 ad=427.5f pd=2.21u as=510f ps=2.3u w=1.7u l=300n
X226 word3.byte2.tinv7.O word3.byte2.buf_RE1.I VDD VDD pfet_03v3 ad=510f pd=2.3u as=510f ps=2.3u w=1.7u l=300n
X227 VSS a_108840_11764# word8.byte2.tinv2.I VSS nfet_03v3 ad=233.75f pd=1.4u as=425f ps=2.7u w=850n l=300n
X228 a_40050_2776# buf_in24.inv1.O VSS VSS nfet_03v3 ad=212.5f pd=1.35u as=233.75f ps=1.4u w=850n l=300n
X229 VSS word3.byte1.nand.OUT word3.byte1.inv_and.O VSS nfet_03v3 ad=510f pd=2.9u as=255f ps=1.45u w=850n l=300n
X230 VDD word5.byte3.buf_RE0.O word5.byte3.tinv7.O VDD pfet_03v3 ad=510f pd=2.3u as=510f ps=2.3u w=1.7u l=300n
X231 VSS a_26580_3816# a_26540_3326# VSS nfet_03v3 ad=233.75f pd=1.4u as=106.25f ps=1.1u w=850n l=300n
X232 a_166050_6462# word5.byte1.dff_7.CLK a_165940_6462# VSS nfet_03v3 ad=233.75f pd=1.4u as=106.25f ps=1.1u w=850n l=300n
X233 a_106680_9714# word7.byte2.tinv1.I VDD VDD pfet_03v3 ad=510f pd=2.3u as=1.02p ps=4.6u w=1.7u l=300n
X234 VSS buf_in15.inv0.O buf_in15.inv1.O VSS nfet_03v3 ad=255f pd=1.45u as=255f ps=1.45u w=850n l=300n
X235 VDD a_147100_7928# a_146100_7976# VDD pfet_03v3 ad=467.5f pd=2.25u as=285f ps=1.47u w=1.705u l=300n
X236 VDD a_124680_6578# a_126240_7362# VDD pfet_03v3 ad=467.5f pd=2.25u as=212.5f ps=1.95u w=1.7u l=300n
X237 word3.byte1.cgate0.nand0.B word3.buf_ck1.I VSS VSS nfet_03v3 ad=255f pd=1.45u as=510f ps=2.9u w=850n l=300n
X238 word4.byte2.inv_and.O word4.byte2.nand.OUT VDD VDD pfet_03v3 ad=510f pd=2.3u as=1.02p ps=4.6u w=1.7u l=300n
X239 word1.byte4.cgate0.inv1.O word1.byte4.cgate0.inv1.I VDD VDD pfet_03v3 ad=510f pd=2.3u as=510f ps=2.3u w=1.7u l=300n
X240 VSS word1.gt_re3.I word1.byte1.buf_RE0.I VSS nfet_03v3 ad=255f pd=1.45u as=255f ps=1.45u w=850n l=300n
X241 a_165330_9598# buf_in1.inv1.O VSS VSS nfet_03v3 ad=212.5f pd=1.35u as=233.75f ps=1.4u w=850n l=300n
X242 a_49620_6578# word5.byte3.tinv2.I VSS VSS nfet_03v3 ad=255f pd=1.45u as=510f ps=2.9u w=850n l=300n
X243 VDD word3.byte3.buf_RE0.O word3.byte3.tinv7.O VDD pfet_03v3 ad=510f pd=2.3u as=510f ps=2.3u w=1.7u l=300n
X244 VDD buf_out9.inv0.I buf_out9.inv0.O VDD pfet_03v3 ad=1.02p pd=4.6u as=1.02p ps=4.6u w=1.7u l=300n
X245 a_166050_3326# word3.byte1.dff_7.CLK a_165940_3326# VSS nfet_03v3 ad=233.75f pd=1.4u as=106.25f ps=1.1u w=850n l=300n
X246 word4.byte4.cgate0.latch0.I0.O word4.byte4.cgate0.latch0.I0.ENB a_36120_4840# VDD pfet_03v3 ad=510f pd=2.3u as=1.02p ps=4.6u w=1.7u l=300n
X247 VDD word6.byte1.nand.B word6.byte2.nand.OUT VDD pfet_03v3 ad=510f pd=2.3u as=1.02p ps=4.6u w=1.7u l=300n
X248 word7.byte1.cgate0.latch0.I0.O word7.byte1.cgate0.latch0.I0.ENB a_131700_10500# VDD pfet_03v3 ad=510f pd=2.3u as=1.02p ps=4.6u w=1.7u l=300n
X249 word2.byte2.inv_and.O word2.byte2.nand.OUT VDD VDD pfet_03v3 ad=510f pd=2.3u as=1.02p ps=4.6u w=1.7u l=300n
X250 VDD a_124680_3442# a_126240_4226# VDD pfet_03v3 ad=467.5f pd=2.25u as=212.5f ps=1.95u w=1.7u l=300n
X251 a_108520_5912# a_106680_4840# VSS VSS nfet_03v3 ad=106.25f pd=1.1u as=233.75f ps=1.4u w=850n l=300n
X252 word6.byte4.tinv7.O buf_out28.inv0.I a_17220_7976# VDD pfet_03v3 ad=510f pd=2.3u as=1.02p ps=4.6u w=1.7u l=300n
X253 VDD a_119640_11764# word8.byte2.tinv5.I VDD pfet_03v3 ad=467.5f pd=2.25u as=850f ps=4.4u w=1.7u l=300n
X254 VSS word2.byte1.tinv7.I a_167700_2660# VSS nfet_03v3 ad=510f pd=2.9u as=255f ps=1.45u w=850n l=300n
X255 word2.byte4.cgate0.latch0.I0.O word2.byte4.cgate0.latch0.I0.ENB a_36120_1704# VDD pfet_03v3 ad=510f pd=2.3u as=1.02p ps=4.6u w=1.7u l=300n
X256 VDD buf_in11.inv0.I buf_in11.inv0.O VDD pfet_03v3 ad=1.02p pd=4.6u as=510f ps=2.3u w=1.7u l=300n
X257 VDD buf_in25.inv0.O buf_in25.inv1.O VDD pfet_03v3 ad=510f pd=2.3u as=510f ps=2.3u w=1.7u l=300n
X258 VDD a_116040_680# word1.byte2.tinv4.I VDD pfet_03v3 ad=467.5f pd=2.25u as=850f ps=4.4u w=1.7u l=300n
X259 word5.byte1.dff_0.O word5.byte1.tinv0.I VDD VDD pfet_03v3 ad=850f pd=4.4u as=467.5f ps=2.25u w=1.7u l=300n
X260 a_22940_12184# a_22150_11904# a_22770_11114# VSS nfet_03v3 ad=106.25f pd=1.1u as=233.75f ps=1.4u w=850n l=300n
X261 word6.byte1.cgate0.latch0.I0.O word6.byte1.cgate0.latch0.I0.O a_131700_8932# VSS nfet_03v3 ad=255f pd=1.45u as=510f ps=2.9u w=850n l=300n
X262 VDD a_61420_6412# a_60420_6578# VDD pfet_03v3 ad=467.5f pd=2.25u as=285f ps=1.47u w=1.705u l=300n
X263 a_124680_1704# word2.byte2.tinv6.EN word2.byte2.tinv7.O VSS nfet_03v3 ad=357.5f pd=1.93u as=255f ps=1.45u w=850n l=300n
X264 VSS Di1 buf_in2.inv0.O VSS nfet_03v3 ad=510f pd=2.9u as=255f ps=1.45u w=850n l=300n
X265 a_48140_12184# a_47350_11904# a_47970_11114# VSS nfet_03v3 ad=106.25f pd=1.1u as=233.75f ps=1.4u w=850n l=300n