* NGSPICE file created from word_flat.ext - technology: gf180mcuC

.subckt word_flat SEL WE3 WE2 WE1 WE0 CLK RE Do24 Di24 Do25 Di25 Do26 Di26 Do27 Di27
+ Do28 Di28 Do29 Di29 Do30 Di30 Do31 Di31 Do16 Di16 Do17 Di17 Do18 Di18 Do19 Di19
+ Do20 Di20 Do21 Di21 Do22 Di22 Do23 Di23 Do8 Di8 Do9 Di9 Do10 Di10 Do11 Di11 Do12
+ Di12 Do13 Di13 Do14 Di14 Do15 Di15 Do0 Di0 Do1 Di1 Do2 Di2 Do3 Di3 Do4 Di4 Do5 Di5
+ Do6 Di6 Do7 Di7 VDD VSS
X0 a_15900_190# byte4.dff_4.CLK a_15340_140# VSS nfet_03v3 ad=106.25f pd=1.1u as=233.75f ps=1.4u w=850n l=300n
X1 a_130770_190# byte2.dff_7.CLK a_130660_190# VSS nfet_03v3 ad=233.75f pd=1.4u as=106.25f ps=1.1u w=850n l=300n
X2 a_1380_680# a_1170_190# VDD VDD pfet_03v3 ad=850f pd=4.4u as=850f ps=4.4u w=1.7u l=300n
X3 VDD byte4.cgate0.nand0.A a_37200_1092# VDD pfet_03v3 ad=1.02p pd=4.6u as=510f ps=2.3u w=1.7u l=300n
X4 a_37560_306# byte4.cgate0.latch0.I0.O byte4.cgate0.latch0.I0.O VSS nfet_03v3 ad=510f pd=2.9u as=255f ps=1.45u w=850n l=300n
X5 VDD byte3.cgate0.latch0.I0.I a_78600_1092# VDD pfet_03v3 ad=1.02p pd=4.6u as=510f ps=2.3u w=1.7u l=300n
X6 buf_sel1.O buf_sel1.I VDD VDD pfet_03v3 ad=510f pd=2.3u as=1.02p ps=4.6u w=1.7u l=300n
X7 VSS a_1380_680# byte4.dff_0.O_bar VSS nfet_03v3 ad=233.75f pd=1.4u as=425f ps=2.7u w=850n l=300n
X8 byte4.inv_and.O byte4.inv_and.I VDD VDD pfet_03v3 ad=510f pd=2.3u as=1.02p ps=4.6u w=1.7u l=300n
X9 VSS a_42420_680# byte3.dff_0.O_bar VSS nfet_03v3 ad=233.75f pd=1.4u as=425f ps=2.7u w=850n l=300n
X10 a_20070_190# a_19450_140# a_19960_1090# VDD pfet_03v3 ad=467.5f pd=2.25u as=212.5f ps=1.95u w=1.7u l=300n
X11 byte3.dff_5.O byte3.dff_5.O_bar VDD VDD pfet_03v3 ad=850f pd=4.4u as=467.5f ps=2.25u w=1.7u l=300n
X12 Do14 byte2.tinv1.ENB a_109740_1092# VDD pfet_03v3 ad=510f pd=2.3u as=1.02p ps=4.6u w=1.7u l=300n
X13 VSS a_159240_190# a_159900_190# VSS nfet_03v3 ad=233.75f pd=1.4u as=106.25f ps=1.1u w=850n l=300n
X14 VDD byte3.buf_RE1.I byte3.buf_RE1.O VDD pfet_03v3 ad=510f pd=2.3u as=510f ps=2.3u w=1.7u l=300n
X15 gt_re3.O gt_re3.I VSS VSS nfet_03v3 ad=255f pd=1.45u as=255f ps=1.45u w=850n l=300n
X16 byte2.dff_2.O byte2.dff_2.O_bar VSS VSS nfet_03v3 ad=425f pd=2.7u as=233.75f ps=1.4u w=850n l=300n
X17 a_166900_140# a_167230_140# a_167130_190# VSS nfet_03v3 ad=233.75f pd=1.4u as=212.5f ps=1.35u w=850n l=300n
X18 a_171520_190# a_170580_190# VSS VSS nfet_03v3 ad=106.25f pd=1.1u as=233.75f ps=1.4u w=850n l=300n
X19 a_64890_190# a_64270_140# a_64780_1090# VDD pfet_03v3 ad=467.5f pd=2.25u as=212.5f ps=1.95u w=1.7u l=300n
X20 a_144550_140# byte1.dff_0.CLK VSS VSS nfet_03v3 ad=425f pd=2.7u as=233.75f ps=1.4u w=850n l=300n
X21 a_62760_1092# byte3.tinv5.I VDD VDD pfet_03v3 ad=510f pd=2.3u as=1.02p ps=4.6u w=1.7u l=300n
X22 VDD byte3.cgate0.nand0.OUT byte3.cgate0.inv1.O VDD pfet_03v3 ad=510f pd=2.3u as=510f ps=2.3u w=1.7u l=300n
X23 VDD byte2.tinv5.I a_124860_1092# VDD pfet_03v3 ad=1.02p pd=4.6u as=510f ps=2.3u w=1.7u l=300n
X24 byte4.buf_RE0.O byte4.buf_RE0.I VDD VDD pfet_03v3 ad=510f pd=2.3u as=510f ps=2.3u w=1.7u l=300n
X25 a_46200_680# a_45990_190# VDD VDD pfet_03v3 ad=850f pd=4.4u as=850f ps=4.4u w=1.7u l=300n
X26 byte2.dff_5.O byte2.dff_5.O_bar VSS VSS nfet_03v3 ad=425f pd=2.7u as=233.75f ps=1.4u w=850n l=300n
X27 a_155890_140# byte1.dff_3.CLK VSS VSS nfet_03v3 ad=425f pd=2.7u as=233.75f ps=1.4u w=850n l=300n
X28 VDD a_8940_680# a_8900_1090# VDD pfet_03v3 ad=467.5f pd=2.25u as=212.5f ps=1.95u w=1.7u l=300n
X29 a_23130_190# Di25 VSS VSS nfet_03v3 ad=212.5f pd=1.35u as=233.75f ps=1.4u w=850n l=300n
X30 VSS byte2.buf_RE0.I byte2.buf_RE0.O VSS nfet_03v3 ad=510f pd=2.9u as=255f ps=1.45u w=850n l=300n
X31 byte4.cgate0.nand0.OUT byte4.cgate0.nand0.A VDD VDD pfet_03v3 ad=510f pd=2.3u as=1.02p ps=4.6u w=1.7u l=300n
X32 a_152620_1090# a_151680_190# VDD VDD pfet_03v3 ad=212.5f pd=1.95u as=467.5f ps=2.25u w=1.7u l=300n
X33 a_45270_1090# Di22 VDD VDD pfet_03v3 ad=425f pd=2.2u as=467.5f ps=2.25u w=1.7u l=300n
X34 a_49980_680# a_49770_190# VSS VSS nfet_03v3 ad=425f pd=2.7u as=425f ps=2.7u w=850n l=300n
X35 a_4230_190# Di30 VSS VSS nfet_03v3 ad=212.5f pd=1.35u as=233.75f ps=1.4u w=850n l=300n
X36 a_55200_1092# byte3.tinv3.I VDD VDD pfet_03v3 ad=510f pd=2.3u as=1.02p ps=4.6u w=1.7u l=300n
X37 a_57330_190# a_56710_140# a_57220_1090# VDD pfet_03v3 ad=467.5f pd=2.25u as=212.5f ps=1.95u w=1.7u l=300n
X38 VDD byte2.cgate0.latch0.I0.O byte2.cgate0.nand0.A VDD pfet_03v3 ad=1.02p pd=4.6u as=510f ps=2.3u w=1.7u l=300n
X39 byte2.inv_and.O byte2.inv_and.I VSS VSS nfet_03v3 ad=255f pd=1.45u as=510f ps=2.9u w=850n l=300n
X40 VSS a_110820_190# a_111480_190# VSS nfet_03v3 ad=233.75f pd=1.4u as=106.25f ps=1.1u w=850n l=300n
X41 a_154380_306# byte1.tinv2.EN Do5 VSS nfet_03v3 ad=510f pd=2.9u as=255f ps=1.45u w=850n l=300n
X42 a_146820_1092# byte1.tinv0.ENB Do7 VDD pfet_03v3 ad=1.02p pd=4.6u as=510f ps=2.3u w=1.7u l=300n
X43 byte4.inv_and.O byte4.inv_and.I VSS VSS nfet_03v3 ad=255f pd=1.45u as=510f ps=2.9u w=850n l=300n
X44 VSS byte4.inv_and.I byte4.inv_and.O VSS nfet_03v3 ad=510f pd=2.9u as=255f ps=1.45u w=850n l=300n
X45 a_61320_680# a_61110_190# VSS VSS nfet_03v3 ad=425f pd=2.7u as=425f ps=2.7u w=850n l=300n
X46 VDD a_151780_140# a_151680_190# VDD pfet_03v3 ad=467.5f pd=2.25u as=850f ps=4.4u w=1.7u l=300n
X47 byte4.dff_4.O byte4.dff_4.O_bar VDD VDD pfet_03v3 ad=850f pd=4.4u as=467.5f ps=2.25u w=1.7u l=300n
X48 VDD a_46200_680# byte3.dff_1.O_bar VDD pfet_03v3 ad=467.5f pd=2.25u as=850f ps=4.4u w=1.7u l=300n
X49 VDD gt_re3.I gt_re3.O VDD pfet_03v3 ad=510f pd=2.3u as=510f ps=2.3u w=1.7u l=300n
X50 byte2.cgate0.inv1.O byte2.cgate0.nand0.OUT VDD VDD pfet_03v3 ad=510f pd=2.3u as=510f ps=2.3u w=1.7u l=300n
X51 VDD a_144120_190# a_144780_1090# VDD pfet_03v3 ad=467.5f pd=2.25u as=212.5f ps=1.95u w=1.7u l=300n
X52 a_56610_190# Di19 VSS VSS nfet_03v3 ad=212.5f pd=1.35u as=233.75f ps=1.4u w=850n l=300n
X53 a_107700_1090# a_107470_140# a_107140_140# VDD pfet_03v3 ad=212.5f pd=1.95u as=467.5f ps=2.25u w=1.7u l=300n
X54 a_27240_1090# a_27010_140# a_26680_140# VDD pfet_03v3 ad=212.5f pd=1.95u as=467.5f ps=2.25u w=1.7u l=300n
X55 VDD gt_re3.I gt_re3.O VDD pfet_03v3 ad=510f pd=2.3u as=510f ps=2.3u w=1.7u l=300n
X56 VDD byte1.cgate0.nand0.OUT byte1.cgate0.inv1.O VDD pfet_03v3 ad=510f pd=2.3u as=510f ps=2.3u w=1.7u l=300n
X57 a_17940_1092# byte4.tinv4.I VDD VDD pfet_03v3 ad=510f pd=2.3u as=1.02p ps=4.6u w=1.7u l=300n
X58 a_152340_190# byte1.dff_2.CLK a_151780_140# VSS nfet_03v3 ad=106.25f pd=1.1u as=233.75f ps=1.4u w=850n l=300n
X59 a_53550_190# byte3.dff_3.CLK a_53440_190# VSS nfet_03v3 ad=233.75f pd=1.4u as=106.25f ps=1.1u w=850n l=300n
X60 Do15 byte2.tinv0.EN a_105960_306# VSS nfet_03v3 ad=255f pd=1.45u as=510f ps=2.9u w=850n l=300n
X61 VDD a_166800_190# a_167460_1090# VDD pfet_03v3 ad=467.5f pd=2.25u as=212.5f ps=1.95u w=1.7u l=300n
X62 a_163680_190# byte1.dff_5.CLK a_163120_140# VSS nfet_03v3 ad=106.25f pd=1.1u as=233.75f ps=1.4u w=850n l=300n
X63 a_64890_190# byte3.dff_6.CLK a_64780_190# VSS nfet_03v3 ad=233.75f pd=1.4u as=106.25f ps=1.1u w=850n l=300n
X64 byte3.buf_RE0.O byte3.buf_RE0.I VSS VSS nfet_03v3 ad=255f pd=1.45u as=255f ps=1.45u w=850n l=300n
X65 VSS a_118380_190# a_119040_190# VSS nfet_03v3 ad=233.75f pd=1.4u as=106.25f ps=1.1u w=850n l=300n
X66 a_19120_140# byte4.dff_5.CLK a_19350_1090# VDD pfet_03v3 ad=467.5f pd=2.25u as=425f ps=2.2u w=1.7u l=300n
X67 byte4.nand.OUT byte4.nand.B VDD VDD pfet_03v3 ad=1.02p pd=4.6u as=510f ps=2.3u w=1.7u l=300n
X68 a_61280_1090# byte3.dff_5.CLK a_61110_190# VDD pfet_03v3 ad=212.5f pd=1.95u as=467.5f ps=2.25u w=1.7u l=300n
X69 a_68880_680# a_68670_190# VSS VSS nfet_03v3 ad=425f pd=2.7u as=425f ps=2.7u w=850n l=300n
X70 a_145060_190# a_144120_190# VSS VSS nfet_03v3 ad=106.25f pd=1.1u as=233.75f ps=1.4u w=850n l=300n
X71 byte4.dff_6.O byte4.dff_6.O_bar VSS VSS nfet_03v3 ad=425f pd=2.7u as=233.75f ps=1.4u w=850n l=300n
X72 VSS a_46200_680# a_46160_190# VSS nfet_03v3 ad=233.75f pd=1.4u as=106.25f ps=1.1u w=850n l=300n
X73 VSS byte3.tinv7.I a_70320_306# VSS nfet_03v3 ad=510f pd=2.9u as=255f ps=1.45u w=850n l=300n
X74 a_98040_306# byte2.cgate0.nand0.A byte2.cgate0.nand0.OUT VSS nfet_03v3 ad=510f pd=2.9u as=255f ps=1.45u w=850n l=300n
X75 a_4330_140# byte4.dff_1.CLK VDD VDD pfet_03v3 ad=850f pd=4.4u as=467.5f ps=2.25u w=1.7u l=300n
X76 a_115030_140# byte2.dff_3.CLK VSS VSS nfet_03v3 ad=425f pd=2.7u as=233.75f ps=1.4u w=850n l=300n
X77 VSS byte2.tinv6.I a_128640_306# VSS nfet_03v3 ad=510f pd=2.9u as=255f ps=1.45u w=850n l=300n
X78 byte4.dff_1.O byte4.dff_1.O_bar VSS VSS nfet_03v3 ad=425f pd=2.7u as=233.75f ps=1.4u w=850n l=300n
X79 VSS a_11460_190# a_12120_190# VSS nfet_03v3 ad=233.75f pd=1.4u as=106.25f ps=1.1u w=850n l=300n
X80 a_24020_1090# byte4.dff_6.CLK a_23850_190# VDD pfet_03v3 ad=212.5f pd=1.95u as=467.5f ps=2.25u w=1.7u l=300n
X81 byte3.dff_1.O byte3.dff_1.O_bar VSS VSS nfet_03v3 ad=425f pd=2.7u as=233.75f ps=1.4u w=850n l=300n
X82 Do18 byte3.tinv5.ENB a_62760_1092# VDD pfet_03v3 ad=510f pd=2.3u as=1.02p ps=4.6u w=1.7u l=300n
X83 VDD byte2.tinv2.I a_113520_1092# VDD pfet_03v3 ad=1.02p pd=4.6u as=510f ps=2.3u w=1.7u l=300n
X84 VDD byte3.cgate0.nand0.OUT byte3.cgate0.inv1.O VDD pfet_03v3 ad=1.02p pd=4.6u as=510f ps=2.3u w=1.7u l=300n
X85 byte4.dff_3.O byte4.dff_3.O_bar VDD VDD pfet_03v3 ad=850f pd=4.4u as=467.5f ps=2.25u w=1.7u l=300n
X86 VSS a_22800_190# a_23460_190# VSS nfet_03v3 ad=233.75f pd=1.4u as=106.25f ps=1.1u w=850n l=300n
X87 Do17 byte3.tinv6.EN a_66540_306# VSS nfet_03v3 ad=255f pd=1.45u as=510f ps=2.9u w=850n l=300n
X88 byte3.dff_4.O byte3.dff_4.O_bar VSS VSS nfet_03v3 ad=425f pd=2.7u as=233.75f ps=1.4u w=850n l=300n
X89 VDD a_122160_190# a_122820_1090# VDD pfet_03v3 ad=467.5f pd=2.25u as=212.5f ps=1.95u w=1.7u l=300n
X90 a_171840_680# a_171630_190# VDD VDD pfet_03v3 ad=850f pd=4.4u as=850f ps=4.4u w=1.7u l=300n
X91 VSS a_159340_140# a_159240_190# VSS nfet_03v3 ad=233.75f pd=1.4u as=425f ps=2.7u w=850n l=300n
X92 a_163450_140# byte1.dff_5.CLK VDD VDD pfet_03v3 ad=850f pd=4.4u as=467.5f ps=2.25u w=1.7u l=300n
X93 VSS byte4.tinv5.I a_21720_306# VSS nfet_03v3 ad=510f pd=2.9u as=255f ps=1.45u w=850n l=300n
X94 VSS a_3900_190# a_4560_190# VSS nfet_03v3 ad=233.75f pd=1.4u as=106.25f ps=1.1u w=850n l=300n
X95 a_23460_1090# a_23230_140# a_22900_140# VDD pfet_03v3 ad=212.5f pd=1.95u as=467.5f ps=2.25u w=1.7u l=300n
X96 VDD byte2.cgate0.nand0.B byte2.cgate0.nand0.OUT VDD pfet_03v3 ad=1.02p pd=4.6u as=510f ps=2.3u w=1.7u l=300n
X97 VDD byte2.tinv0.I a_105960_1092# VDD pfet_03v3 ad=1.02p pd=4.6u as=510f ps=2.3u w=1.7u l=300n
X98 byte1.nand.OUT WE0 a_133860_306# VSS nfet_03v3 ad=510f pd=2.9u as=255f ps=1.45u w=850n l=300n
X99 VDD a_4000_140# a_3900_190# VDD pfet_03v3 ad=467.5f pd=2.25u as=850f ps=4.4u w=1.7u l=300n
X100 VSS byte4.tinv0.I a_2820_306# VSS nfet_03v3 ad=510f pd=2.9u as=255f ps=1.45u w=850n l=300n
X101 VSS a_44940_190# a_45600_190# VSS nfet_03v3 ad=233.75f pd=1.4u as=106.25f ps=1.1u w=850n l=300n
X102 VSS gt_re3.I gt_re3.O VSS nfet_03v3 ad=255f pd=1.45u as=255f ps=1.45u w=850n l=300n
X103 VDD a_156720_680# a_156680_1090# VDD pfet_03v3 ad=467.5f pd=2.25u as=212.5f ps=1.95u w=1.7u l=300n
X104 byte1.cgate0.nand0.OUT byte1.cgate0.nand0.B VDD VDD pfet_03v3 ad=510f pd=2.3u as=1.02p ps=4.6u w=1.7u l=300n
X105 VDD gt_re3.I gt_re3.O VDD pfet_03v3 ad=510f pd=2.3u as=510f ps=2.3u w=1.7u l=300n
X106 VSS a_171840_680# a_171800_190# VSS nfet_03v3 ad=233.75f pd=1.4u as=106.25f ps=1.1u w=850n l=300n
X107 VSS byte3.tinv0.I a_43860_306# VSS nfet_03v3 ad=510f pd=2.9u as=255f ps=1.45u w=850n l=300n
X108 byte3.buf_RE1.O byte3.buf_RE1.I VSS VSS nfet_03v3 ad=255f pd=1.45u as=255f ps=1.45u w=850n l=300n
X109 gt_re2.O gt_re2.I VSS VSS nfet_03v3 ad=255f pd=1.45u as=510f ps=2.9u w=850n l=300n
X110 a_119600_1090# byte2.dff_4.CLK a_119430_190# VDD pfet_03v3 ad=212.5f pd=1.95u as=467.5f ps=2.25u w=1.7u l=300n
X111 Do27 byte4.tinv4.EN a_17940_306# VSS nfet_03v3 ad=255f pd=1.45u as=510f ps=2.9u w=850n l=300n
X112 a_115540_190# a_114600_190# VSS VSS nfet_03v3 ad=106.25f pd=1.1u as=233.75f ps=1.4u w=850n l=300n
X113 a_158160_1092# byte1.tinv3.ENB Do4 VDD pfet_03v3 ad=1.02p pd=4.6u as=510f ps=2.3u w=1.7u l=300n
X114 a_41590_140# byte3.dff_0.CLK VSS VSS nfet_03v3 ad=425f pd=2.7u as=233.75f ps=1.4u w=850n l=300n
X115 byte2.buf_RE1.O byte2.buf_RE1.I VSS VSS nfet_03v3 ad=255f pd=1.45u as=255f ps=1.45u w=850n l=300n
X116 VDD a_163120_140# a_163020_190# VDD pfet_03v3 ad=467.5f pd=2.25u as=850f ps=4.4u w=1.7u l=300n
X117 a_126880_190# a_125940_190# VSS VSS nfet_03v3 ad=106.25f pd=1.1u as=233.75f ps=1.4u w=850n l=300n
X118 VDD a_149160_680# a_149120_1090# VDD pfet_03v3 ad=467.5f pd=2.25u as=212.5f ps=1.95u w=1.7u l=300n
X119 VSS byte2.cgate0.nand0.B byte2.cgate0.latch0.I0.O VSS nfet_03v3 ad=510f pd=2.9u as=255f ps=1.45u w=850n l=300n
X120 a_108260_190# a_107470_140# a_108090_190# VSS nfet_03v3 ad=106.25f pd=1.1u as=233.75f ps=1.4u w=850n l=300n
X121 a_27010_140# byte4.dff_7.CLK VSS VSS nfet_03v3 ad=425f pd=2.7u as=233.75f ps=1.4u w=850n l=300n
X122 byte3.buf_RE1.O byte3.buf_RE1.I VDD VDD pfet_03v3 ad=510f pd=2.3u as=1.02p ps=4.6u w=1.7u l=300n
X123 buf_ck1.O buf_ck1.I VDD VDD pfet_03v3 ad=510f pd=2.3u as=510f ps=2.3u w=1.7u l=300n
X124 a_121080_1092# byte2.tinv4.ENB Do11 VDD pfet_03v3 ad=1.02p pd=4.6u as=510f ps=2.3u w=1.7u l=300n
X125 byte1.nand.OUT WE0 VDD VDD pfet_03v3 ad=1.02p pd=4.6u as=510f ps=2.3u w=1.7u l=300n
X126 a_220_140# byte4.dff_0.CLK a_450_1090# VDD pfet_03v3 ad=467.5f pd=2.25u as=425f ps=2.2u w=1.7u l=300n
X127 a_29280_1092# byte4.tinv7.I VDD VDD pfet_03v3 ad=510f pd=2.3u as=1.02p ps=4.6u w=1.7u l=300n
X128 byte4.cgate0.latch0.I0.O byte4.cgate0.latch0.I0.O a_37560_306# VSS nfet_03v3 ad=255f pd=1.45u as=510f ps=2.9u w=850n l=300n
X129 a_144450_190# Di7 VSS VSS nfet_03v3 ad=212.5f pd=1.35u as=233.75f ps=1.4u w=850n l=300n
X130 a_8110_140# byte4.dff_2.CLK VSS VSS nfet_03v3 ad=425f pd=2.7u as=233.75f ps=1.4u w=850n l=300n
X131 VDD byte3.tinv0.I a_43860_1092# VDD pfet_03v3 ad=1.02p pd=4.6u as=510f ps=2.3u w=1.7u l=300n
X132 a_136020_306# byte1.cgate0.latch0.I0.I VSS VSS nfet_03v3 ad=255f pd=1.45u as=510f ps=2.9u w=850n l=300n
X133 a_68840_190# a_68050_140# a_68670_190# VSS nfet_03v3 ad=106.25f pd=1.1u as=233.75f ps=1.4u w=850n l=300n
X134 a_155790_190# Di4 VSS VSS nfet_03v3 ad=212.5f pd=1.35u as=233.75f ps=1.4u w=850n l=300n
X135 a_12680_1090# byte4.dff_3.CLK a_12510_190# VDD pfet_03v3 ad=212.5f pd=1.95u as=467.5f ps=2.25u w=1.7u l=300n
X136 VDD byte2.buf_RE1.I byte2.buf_RE1.O VDD pfet_03v3 ad=510f pd=2.3u as=510f ps=2.3u w=1.7u l=300n
X137 a_113520_1092# byte2.tinv2.ENB Do13 VDD pfet_03v3 ad=1.02p pd=4.6u as=510f ps=2.3u w=1.7u l=300n
X138 a_152730_190# byte1.dff_2.CLK a_152620_190# VSS nfet_03v3 ad=233.75f pd=1.4u as=106.25f ps=1.1u w=850n l=300n
X139 VDD byte3.tinv6.I a_66540_1092# VDD pfet_03v3 ad=1.02p pd=4.6u as=510f ps=2.3u w=1.7u l=300n
X140 VSS gt_re3.I gt_re3.O VSS nfet_03v3 ad=255f pd=1.45u as=255f ps=1.45u w=850n l=300n
X141 VDD a_110820_190# a_111480_1090# VDD pfet_03v3 ad=467.5f pd=2.25u as=212.5f ps=1.95u w=1.7u l=300n
X142 a_160500_680# a_160290_190# VDD VDD pfet_03v3 ad=850f pd=4.4u as=850f ps=4.4u w=1.7u l=300n
X143 a_152110_140# byte1.dff_2.CLK VDD VDD pfet_03v3 ad=850f pd=4.4u as=467.5f ps=2.25u w=1.7u l=300n
X144 Do28 byte4.tinv3.ENB a_14160_1092# VDD pfet_03v3 ad=510f pd=2.3u as=1.02p ps=4.6u w=1.7u l=300n
X145 byte2.cgate0.inv1.O byte2.cgate0.nand0.OUT VSS VSS nfet_03v3 ad=255f pd=1.45u as=255f ps=1.45u w=850n l=300n
X146 a_107700_190# byte2.dff_1.CLK a_107140_140# VSS nfet_03v3 ad=106.25f pd=1.1u as=233.75f ps=1.4u w=850n l=300n
X147 a_168060_680# a_167850_190# VSS VSS nfet_03v3 ad=425f pd=2.7u as=425f ps=2.7u w=850n l=300n
X148 a_27520_190# a_26580_190# VSS VSS nfet_03v3 ad=106.25f pd=1.1u as=233.75f ps=1.4u w=850n l=300n
X149 a_49940_1090# byte3.dff_2.CLK a_49770_190# VDD pfet_03v3 ad=212.5f pd=1.95u as=467.5f ps=2.25u w=1.7u l=300n
X150 byte2.cgate0.latch0.I0.O byte2.cgate0.nand0.B a_96420_306# VSS nfet_03v3 ad=510f pd=2.9u as=255f ps=1.45u w=850n l=300n
X151 a_158160_306# byte1.tinv3.I VSS VSS nfet_03v3 ad=255f pd=1.45u as=510f ps=2.9u w=850n l=300n
X152 VDD gt_re3.I gt_re3.O VDD pfet_03v3 ad=510f pd=2.3u as=510f ps=2.3u w=1.7u l=300n
X153 VDD byte1.cgate0.nand0.A byte1.cgate0.nand0.OUT VDD pfet_03v3 ad=1.02p pd=4.6u as=510f ps=2.3u w=1.7u l=300n
X154 a_8010_1090# Di29 VDD VDD pfet_03v3 ad=425f pd=2.2u as=467.5f ps=2.25u w=1.7u l=300n
X155 a_108260_1090# byte2.dff_1.CLK a_108090_190# VDD pfet_03v3 ad=212.5f pd=1.95u as=467.5f ps=2.25u w=1.7u l=300n
X156 Do5 byte1.tinv2.EN a_154380_306# VSS nfet_03v3 ad=255f pd=1.45u as=510f ps=2.9u w=850n l=300n
X157 a_8620_190# a_7680_190# VSS VSS nfet_03v3 ad=106.25f pd=1.1u as=233.75f ps=1.4u w=850n l=300n
X158 byte1.dff_0.O byte1.dff_0.O_bar VSS VSS nfet_03v3 ad=425f pd=2.7u as=233.75f ps=1.4u w=850n l=300n
X159 VDD a_8940_680# byte4.dff_2.O_bar VDD pfet_03v3 ad=467.5f pd=2.25u as=850f ps=4.4u w=1.7u l=300n
X160 VSS a_4000_140# a_3900_190# VSS nfet_03v3 ad=233.75f pd=1.4u as=425f ps=2.7u w=850n l=300n
X161 byte1.dff_3.O byte1.dff_3.O_bar VSS VSS nfet_03v3 ad=425f pd=2.7u as=233.75f ps=1.4u w=850n l=300n
X162 a_49380_1090# a_49150_140# a_48820_140# VDD pfet_03v3 ad=212.5f pd=1.95u as=467.5f ps=2.25u w=1.7u l=300n
X163 VSS a_45040_140# a_44940_190# VSS nfet_03v3 ad=233.75f pd=1.4u as=425f ps=2.7u w=850n l=300n
X164 a_119640_680# a_119430_190# VSS VSS nfet_03v3 ad=425f pd=2.7u as=425f ps=2.7u w=850n l=300n
X165 a_155560_140# byte1.dff_3.CLK a_155790_1090# VDD pfet_03v3 ad=467.5f pd=2.25u as=425f ps=2.2u w=1.7u l=300n
X166 byte3.buf_RE1.O byte3.buf_RE1.I VDD VDD pfet_03v3 ad=510f pd=2.3u as=510f ps=2.3u w=1.7u l=300n
X167 a_68280_190# byte3.dff_7.CLK a_67720_140# VSS nfet_03v3 ad=106.25f pd=1.1u as=233.75f ps=1.4u w=850n l=300n
X168 a_29280_1092# byte4.tinv7.ENB Do24 VDD pfet_03v3 ad=1.02p pd=4.6u as=510f ps=2.3u w=1.7u l=300n
X169 VDD a_168060_680# byte1.dff_6.O_bar VDD pfet_03v3 ad=467.5f pd=2.25u as=850f ps=4.4u w=1.7u l=300n
X170 VSS a_24060_680# byte4.dff_6.O_bar VSS nfet_03v3 ad=233.75f pd=1.4u as=425f ps=2.7u w=850n l=300n
X171 a_151780_140# a_152110_140# a_152010_190# VSS nfet_03v3 ad=233.75f pd=1.4u as=212.5f ps=1.35u w=850n l=300n
X172 VSS a_144120_190# a_144780_190# VSS nfet_03v3 ad=233.75f pd=1.4u as=106.25f ps=1.1u w=850n l=300n
X173 VDD byte4.buf_RE0.I byte4.buf_RE0.O VDD pfet_03v3 ad=510f pd=2.3u as=510f ps=2.3u w=1.7u l=300n
X174 byte3.cgate0.inv1.O byte3.cgate0.nand0.OUT VDD VDD pfet_03v3 ad=510f pd=2.3u as=510f ps=2.3u w=1.7u l=300n
X175 VSS byte3.buf_RE0.I byte3.buf_RE0.O VSS nfet_03v3 ad=255f pd=1.45u as=255f ps=1.45u w=850n l=300n
X176 VSS gt_re2.I gt_re2.O VSS nfet_03v3 ad=510f pd=2.9u as=255f ps=1.45u w=850n l=300n
X177 a_130150_140# byte2.dff_7.CLK VDD VDD pfet_03v3 ad=850f pd=4.4u as=467.5f ps=2.25u w=1.7u l=300n
X178 a_126270_190# Di9 VSS VSS nfet_03v3 ad=212.5f pd=1.35u as=233.75f ps=1.4u w=850n l=300n
X179 VDD a_20280_680# a_20240_1090# VDD pfet_03v3 ad=467.5f pd=2.25u as=212.5f ps=1.95u w=1.7u l=300n
X180 VSS a_5160_680# byte4.dff_1.O_bar VSS nfet_03v3 ad=233.75f pd=1.4u as=425f ps=2.7u w=850n l=300n
X181 a_95160_1092# byte2.cgate0.latch0.I0.I VDD VDD pfet_03v3 ad=510f pd=2.3u as=1.02p ps=4.6u w=1.7u l=300n
X182 VDD byte2.buf_RE1.I byte2.buf_RE1.O VDD pfet_03v3 ad=1.02p pd=4.6u as=510f ps=2.3u w=1.7u l=300n
X183 a_70320_306# byte3.tinv7.I VSS VSS nfet_03v3 ad=255f pd=1.45u as=510f ps=2.9u w=850n l=300n
X184 byte2.cgate0.nand0.OUT byte2.cgate0.nand0.A a_98040_306# VSS nfet_03v3 ad=255f pd=1.45u as=510f ps=2.9u w=850n l=300n
X185 VSS a_115860_680# a_115820_190# VSS nfet_03v3 ad=233.75f pd=1.4u as=106.25f ps=1.1u w=850n l=300n
X186 VDD a_41160_190# a_41820_1090# VDD pfet_03v3 ad=467.5f pd=2.25u as=212.5f ps=1.95u w=1.7u l=300n
X187 a_123210_190# byte2.dff_5.CLK a_123100_190# VSS nfet_03v3 ad=233.75f pd=1.4u as=106.25f ps=1.1u w=850n l=300n
X188 a_19680_190# byte4.dff_5.CLK a_19120_140# VSS nfet_03v3 ad=106.25f pd=1.1u as=233.75f ps=1.4u w=850n l=300n
X189 a_128640_306# byte2.tinv6.I VSS VSS nfet_03v3 ad=255f pd=1.45u as=510f ps=2.9u w=850n l=300n
X190 VDD byte3.tinv3.I a_55200_1092# VDD pfet_03v3 ad=1.02p pd=4.6u as=510f ps=2.3u w=1.7u l=300n
X191 a_66540_1092# byte3.tinv6.ENB Do17 VDD pfet_03v3 ad=1.02p pd=4.6u as=510f ps=2.3u w=1.7u l=300n
X192 a_81660_306# WE2 byte3.nand.OUT VSS nfet_03v3 ad=255f pd=1.45u as=510f ps=2.9u w=850n l=300n
X193 VDD a_123420_680# a_123380_1090# VDD pfet_03v3 ad=467.5f pd=2.25u as=212.5f ps=1.95u w=1.7u l=300n
X194 byte1.cgate0.inv1.O byte1.cgate0.nand0.OUT VSS VSS nfet_03v3 ad=255f pd=1.45u as=510f ps=2.9u w=850n l=300n
X195 byte4.dff_1.O byte4.dff_1.O_bar VDD VDD pfet_03v3 ad=850f pd=4.4u as=467.5f ps=2.25u w=1.7u l=300n
X196 VSS byte4.cgate0.latch0.I0.I a_37560_306# VSS nfet_03v3 ad=510f pd=2.9u as=255f ps=1.45u w=850n l=300n
X197 VDD a_63840_190# a_64500_1090# VDD pfet_03v3 ad=467.5f pd=2.25u as=212.5f ps=1.95u w=1.7u l=300n
X198 byte1.dff_7.O byte1.dff_7.O_bar VDD VDD pfet_03v3 ad=850f pd=4.4u as=467.5f ps=2.25u w=1.7u l=300n
X199 VSS a_170680_140# a_170580_190# VSS nfet_03v3 ad=233.75f pd=1.4u as=425f ps=2.7u w=850n l=300n
X200 a_780_190# byte4.dff_0.CLK a_220_140# VSS nfet_03v3 ad=106.25f pd=1.1u as=233.75f ps=1.4u w=850n l=300n
X201 VSS a_46200_680# byte3.dff_1.O_bar VSS nfet_03v3 ad=233.75f pd=1.4u as=425f ps=2.7u w=850n l=300n
X202 a_136020_306# byte1.cgate0.latch0.I0.O byte1.cgate0.latch0.I0.O VSS nfet_03v3 ad=510f pd=2.9u as=255f ps=1.45u w=850n l=300n
X203 a_21720_306# byte4.tinv5.I VSS VSS nfet_03v3 ad=255f pd=1.45u as=510f ps=2.9u w=850n l=300n
X204 gt_re3.O gt_re3.I VDD VDD pfet_03v3 ad=510f pd=2.3u as=510f ps=2.3u w=1.7u l=300n
X205 a_168020_190# a_167230_140# a_167850_190# VSS nfet_03v3 ad=106.25f pd=1.1u as=233.75f ps=1.4u w=850n l=300n
X206 byte1.cgate0.inv1.O byte1.cgate0.nand0.OUT VDD VDD pfet_03v3 ad=510f pd=2.3u as=510f ps=2.3u w=1.7u l=300n
X207 a_8730_190# a_8110_140# a_8620_1090# VDD pfet_03v3 ad=467.5f pd=2.25u as=212.5f ps=1.95u w=1.7u l=300n
X208 a_41490_190# Di23 VSS VSS nfet_03v3 ad=212.5f pd=1.35u as=233.75f ps=1.4u w=850n l=300n
X209 a_6600_1092# byte4.tinv1.I VDD VDD pfet_03v3 ad=510f pd=2.3u as=1.02p ps=4.6u w=1.7u l=300n
X210 byte2.buf_RE0.O byte2.buf_RE0.I VDD VDD pfet_03v3 ad=510f pd=2.3u as=1.02p ps=4.6u w=1.7u l=300n
X211 a_148330_140# byte1.dff_1.CLK VSS VSS nfet_03v3 ad=425f pd=2.7u as=233.75f ps=1.4u w=850n l=300n
X212 a_152340_1090# a_152110_140# a_151780_140# VDD pfet_03v3 ad=212.5f pd=1.95u as=467.5f ps=2.25u w=1.7u l=300n
X213 byte1.buf_RE1.O byte1.buf_RE1.I VDD VDD pfet_03v3 ad=510f pd=2.3u as=1.02p ps=4.6u w=1.7u l=300n
X214 a_2820_306# byte4.tinv0.I VSS VSS nfet_03v3 ad=255f pd=1.45u as=510f ps=2.9u w=850n l=300n
X215 byte3.cgate0.inv1.O byte3.cgate0.nand0.OUT VSS VSS nfet_03v3 ad=255f pd=1.45u as=255f ps=1.45u w=850n l=300n
X216 gt_re3.O gt_re3.I VSS VSS nfet_03v3 ad=255f pd=1.45u as=255f ps=1.45u w=850n l=300n
X217 a_122260_140# a_122590_140# a_122490_190# VSS nfet_03v3 ad=233.75f pd=1.4u as=212.5f ps=1.35u w=850n l=300n
X218 byte1.dff_5.O byte1.dff_5.O_bar VDD VDD pfet_03v3 ad=850f pd=4.4u as=467.5f ps=2.25u w=1.7u l=300n
X219 a_7780_140# byte4.dff_2.CLK a_8010_1090# VDD pfet_03v3 ad=467.5f pd=2.25u as=425f ps=2.2u w=1.7u l=300n
X220 VSS byte3.buf_RE1.I byte3.buf_RE1.O VSS nfet_03v3 ad=255f pd=1.45u as=255f ps=1.45u w=850n l=300n
X221 a_167850_190# a_167230_140# a_167740_1090# VDD pfet_03v3 ad=467.5f pd=2.25u as=212.5f ps=1.95u w=1.7u l=300n
X222 a_155790_1090# Di4 VDD VDD pfet_03v3 ad=425f pd=2.2u as=467.5f ps=2.25u w=1.7u l=300n
X223 a_144220_140# byte1.dff_0.CLK a_144450_1090# VDD pfet_03v3 ad=467.5f pd=2.25u as=425f ps=2.2u w=1.7u l=300n
X224 a_53760_680# a_53550_190# VSS VSS nfet_03v3 ad=425f pd=2.7u as=425f ps=2.7u w=850n l=300n
X225 a_165720_1092# byte1.tinv5.I VDD VDD pfet_03v3 ad=510f pd=2.3u as=1.02p ps=4.6u w=1.7u l=300n
X226 byte3.buf_RE0.O byte3.buf_RE0.I VDD VDD pfet_03v3 ad=510f pd=2.3u as=1.02p ps=4.6u w=1.7u l=300n
X227 VSS byte2.cgate0.latch0.I0.O byte2.cgate0.nand0.A VSS nfet_03v3 ad=510f pd=2.9u as=255f ps=1.45u w=850n l=300n
X228 VSS a_114600_190# a_115260_190# VSS nfet_03v3 ad=233.75f pd=1.4u as=106.25f ps=1.1u w=850n l=300n
X229 a_158160_306# byte1.tinv3.EN Do4 VSS nfet_03v3 ad=510f pd=2.9u as=255f ps=1.45u w=850n l=300n
X230 VDD a_156720_680# byte1.dff_3.O_bar VDD pfet_03v3 ad=467.5f pd=2.25u as=850f ps=4.4u w=1.7u l=300n
X231 a_149160_680# a_148950_190# VDD VDD pfet_03v3 ad=850f pd=4.4u as=850f ps=4.4u w=1.7u l=300n
X232 VSS a_27840_680# a_27800_190# VSS nfet_03v3 ad=233.75f pd=1.4u as=106.25f ps=1.1u w=850n l=300n
X233 a_65100_680# a_64890_190# VSS VSS nfet_03v3 ad=425f pd=2.7u as=425f ps=2.7u w=850n l=300n
X234 VSS byte2.tinv2.I a_113520_306# VSS nfet_03v3 ad=510f pd=2.9u as=255f ps=1.45u w=850n l=300n
X235 a_62760_1092# byte3.tinv5.ENB Do18 VDD pfet_03v3 ad=1.02p pd=4.6u as=510f ps=2.3u w=1.7u l=300n
X236 byte2.cgate0.latch0.I0.O byte2.cgate0.nand0.B VSS VSS nfet_03v3 ad=255f pd=1.45u as=510f ps=2.9u w=850n l=300n
X237 a_166900_140# byte1.dff_6.CLK a_167130_1090# VDD pfet_03v3 ad=467.5f pd=2.25u as=425f ps=2.2u w=1.7u l=300n
X238 VSS a_171840_680# byte1.dff_7.O_bar VSS nfet_03v3 ad=233.75f pd=1.4u as=425f ps=2.7u w=850n l=300n
X239 a_148230_1090# Di6 VDD VDD pfet_03v3 ad=425f pd=2.2u as=467.5f ps=2.25u w=1.7u l=300n
X240 VSS a_8940_680# a_8900_190# VSS nfet_03v3 ad=233.75f pd=1.4u as=106.25f ps=1.1u w=850n l=300n
X241 a_109740_306# byte2.tinv1.EN Do14 VSS nfet_03v3 ad=510f pd=2.9u as=255f ps=1.45u w=850n l=300n
X242 a_138900_306# byte1.cgate0.nand0.B VSS VSS nfet_03v3 ad=255f pd=1.45u as=510f ps=2.9u w=850n l=300n
X243 VDD a_53760_680# a_53720_1090# VDD pfet_03v3 ad=467.5f pd=2.25u as=212.5f ps=1.95u w=1.7u l=300n
X244 a_148840_190# a_147900_190# VSS VSS nfet_03v3 ad=106.25f pd=1.1u as=233.75f ps=1.4u w=850n l=300n
X245 byte3.dff_0.O byte3.dff_0.O_bar VSS VSS nfet_03v3 ad=425f pd=2.7u as=233.75f ps=1.4u w=850n l=300n
X246 VSS a_49980_680# a_49940_190# VSS nfet_03v3 ad=233.75f pd=1.4u as=106.25f ps=1.1u w=850n l=300n
X247 a_121080_306# byte2.tinv4.EN Do11 VSS nfet_03v3 ad=510f pd=2.9u as=255f ps=1.45u w=850n l=300n
X248 a_156120_190# byte1.dff_3.CLK a_155560_140# VSS nfet_03v3 ad=106.25f pd=1.1u as=233.75f ps=1.4u w=850n l=300n
X249 a_55200_1092# byte3.tinv3.ENB Do20 VDD pfet_03v3 ad=1.02p pd=4.6u as=510f ps=2.3u w=1.7u l=300n
X250 a_57330_190# byte3.dff_4.CLK a_57220_190# VSS nfet_03v3 ad=233.75f pd=1.4u as=106.25f ps=1.1u w=850n l=300n
X251 VSS a_144220_140# a_144120_190# VSS nfet_03v3 ad=233.75f pd=1.4u as=425f ps=2.7u w=850n l=300n
X252 a_5120_1090# byte4.dff_1.CLK a_4950_190# VDD pfet_03v3 ad=212.5f pd=1.95u as=467.5f ps=2.25u w=1.7u l=300n
X253 a_171800_1090# byte1.dff_7.CLK a_171630_190# VDD pfet_03v3 ad=212.5f pd=1.95u as=467.5f ps=2.25u w=1.7u l=300n
X254 a_167460_190# byte1.dff_6.CLK a_166900_140# VSS nfet_03v3 ad=106.25f pd=1.1u as=233.75f ps=1.4u w=850n l=300n
X255 VDD a_60160_140# a_60060_190# VDD pfet_03v3 ad=467.5f pd=2.25u as=850f ps=4.4u w=1.7u l=300n
X256 gt_re3.O gt_re3.I VDD VDD pfet_03v3 ad=510f pd=2.3u as=510f ps=2.3u w=1.7u l=300n
X257 a_68670_190# byte3.dff_7.CLK a_68560_190# VSS nfet_03v3 ad=233.75f pd=1.4u as=106.25f ps=1.1u w=850n l=300n
X258 VDD a_52500_190# a_53160_1090# VDD pfet_03v3 ad=467.5f pd=2.25u as=212.5f ps=1.95u w=1.7u l=300n
X259 a_23740_1090# a_22800_190# VDD VDD pfet_03v3 ad=212.5f pd=1.95u as=467.5f ps=2.25u w=1.7u l=300n
X260 gt_re3.O gt_re3.I VSS VSS nfet_03v3 ad=255f pd=1.45u as=255f ps=1.45u w=850n l=300n
X261 a_17940_1092# byte4.tinv4.ENB Do27 VDD pfet_03v3 ad=1.02p pd=4.6u as=510f ps=2.3u w=1.7u l=300n
X262 a_70320_306# byte3.tinv7.EN Do16 VSS nfet_03v3 ad=510f pd=2.9u as=255f ps=1.45u w=850n l=300n
X263 VSS byte2.cgate0.nand0.OUT byte2.cgate0.inv1.O VSS nfet_03v3 ad=255f pd=1.45u as=255f ps=1.45u w=850n l=300n
X264 Do30 byte4.tinv1.ENB a_6600_1092# VDD pfet_03v3 ad=510f pd=2.3u as=1.02p ps=4.6u w=1.7u l=300n
X265 a_122260_140# byte2.dff_5.CLK a_122490_1090# VDD pfet_03v3 ad=467.5f pd=2.25u as=425f ps=2.2u w=1.7u l=300n
X266 Do0 byte1.tinv7.ENB a_173280_1092# VDD pfet_03v3 ad=510f pd=2.3u as=1.02p ps=4.6u w=1.7u l=300n
X267 a_164240_1090# byte1.dff_5.CLK a_164070_190# VDD pfet_03v3 ad=212.5f pd=1.95u as=467.5f ps=2.25u w=1.7u l=300n
X268 VDD a_15240_190# a_15900_1090# VDD pfet_03v3 ad=467.5f pd=2.25u as=212.5f ps=1.95u w=1.7u l=300n
X269 a_20240_190# a_19450_140# a_20070_190# VSS nfet_03v3 ad=106.25f pd=1.1u as=233.75f ps=1.4u w=850n l=300n
X270 VSS CLK buf_ck0.O VSS nfet_03v3 ad=510f pd=2.9u as=255f ps=1.45u w=850n l=300n
X271 a_126880_1090# a_125940_190# VDD VDD pfet_03v3 ad=212.5f pd=1.95u as=467.5f ps=2.25u w=1.7u l=300n
X272 a_128640_306# byte2.tinv6.EN Do9 VSS nfet_03v3 ad=510f pd=2.9u as=255f ps=1.45u w=850n l=300n
X273 VSS byte4.tinv3.I a_14160_306# VSS nfet_03v3 ad=510f pd=2.9u as=255f ps=1.45u w=850n l=300n
X274 a_96420_306# byte2.cgate0.nand0.A VSS VSS nfet_03v3 ad=255f pd=1.45u as=510f ps=2.9u w=850n l=300n
X275 a_111760_190# a_110820_190# VSS VSS nfet_03v3 ad=106.25f pd=1.1u as=233.75f ps=1.4u w=850n l=300n
X276 VDD byte4.tinv7.I a_29280_1092# VDD pfet_03v3 ad=1.02p pd=4.6u as=510f ps=2.3u w=1.7u l=300n
X277 VDD buf_ck1.I buf_ck1.O VDD pfet_03v3 ad=510f pd=2.3u as=510f ps=2.3u w=1.7u l=300n
X278 a_1340_190# a_550_140# a_1170_190# VSS nfet_03v3 ad=106.25f pd=1.1u as=233.75f ps=1.4u w=850n l=300n
X279 VSS byte4.tinv6.I a_25500_306# VSS nfet_03v3 ad=510f pd=2.9u as=255f ps=1.45u w=850n l=300n
X280 a_156510_190# a_155890_140# a_156400_1090# VDD pfet_03v3 ad=467.5f pd=2.25u as=212.5f ps=1.95u w=1.7u l=300n
X281 VSS byte1.cgate0.nand0.OUT byte1.cgate0.inv1.O VSS nfet_03v3 ad=510f pd=2.9u as=255f ps=1.45u w=850n l=300n
X282 Do2 byte1.tinv5.ENB a_165720_1092# VDD pfet_03v3 ad=510f pd=2.3u as=1.02p ps=4.6u w=1.7u l=300n
X283 a_154380_1092# byte1.tinv2.I VDD VDD pfet_03v3 ad=510f pd=2.3u as=1.02p ps=4.6u w=1.7u l=300n
X284 a_49150_140# byte3.dff_2.CLK VDD VDD pfet_03v3 ad=850f pd=4.4u as=467.5f ps=2.25u w=1.7u l=300n
X285 a_119320_1090# a_118380_190# VDD VDD pfet_03v3 ad=212.5f pd=1.95u as=467.5f ps=2.25u w=1.7u l=300n
X286 VSS a_145380_680# byte1.dff_0.O_bar VSS nfet_03v3 ad=233.75f pd=1.4u as=425f ps=2.7u w=850n l=300n